
 *******************************************************************************

         NASA-GLENN CHEMICAL EQUILIBRIUM PROGRAM CEA2, MAY 21, 2004
                   BY  BONNIE MCBRIDE AND SANFORD GORDON
      REFS: NASA RP-1311, PART I, 1994 AND NASA RP-1311, PART II, 1996

 *******************************************************************************



 !  EXAMPLE 7:
 !     (a)  Shock tube problem (shock).
 !     (b)  Reactants are H2, O2, and Ar gases at 300 K.  Note that for shock
 !          problems reactants must be gaseous species in the thermodynamic
 !          data base.  The program calculates properties of the
 !          reactants at the temperature given (300 K) using the thermo.lib
 !          coefficients.
 !     (c)  Reactants are given in moles (moles = ...).
 !     (d)  Initial gas pressures are 10 and 20 mm Hg (p,mmhg=10,20,)
 !     (e)  Seven initial gas velocities are assigned (u1=1000,1100,1200,
 !          1250,1300,1350,1400,).  Note units of u1 are always m/s.
 !     (f)  Equilibrium calculations are to be performed for incident shock
 !          conditions (incd  eql).
 !     (g)  Frozen calculations are to be performed for incident shock
 !          conditions (incd  froz).
 !     (h)  No 'outp' dataset is given since the default values of the
 !          the parameters have the desired  values (e.g. SI units).
  
 reac   name= H2  moles= 0.050  t(k) 300.00
        name= O2  moles= 0.050  t(k) 300.00
        name= Ar  moles= 0.900  t(k) 300.00
  
 problem  case=7 p,mmhg=10,20, shock u1=1000,1100,1200,1250,1300,1350,1400,
   incd froz  eql
  
 end

 OPTIONS: TP=F  HP=F  SP=F  TV=F  UV=F  SV=F  DETN=F  SHOCK=T  REFL=F  INCD=T
 RKT=F  FROZ=T  EQL=T  IONS=F  SIUNIT=T  DEBUGF=F  SHKDBG=F  DETDBG=F  TRNSPT=F

 TRACE= 0.00E+00  S/R= 0.000000E+00  H/R= 0.000000E+00  U/R= 0.000000E+00

 P,BAR =     0.013332     0.026664

    REACTANT           MOLES    (ENERGY/R),K   TEMP,K  DENSITY
        EXPLODED FORMULA
 N: H2               0.050000   0.641759E+01   300.00  0.0000
          H  2.00000
 N: O2               0.050000   0.653777E+01   300.00  0.0000
          O  2.00000
 N: Ar               0.900000   0.462500E+01   300.00  0.0000
          AR 1.00000

  SPECIES BEING CONSIDERED IN THIS SYSTEM
 (CONDENSED PHASE MAY HAVE NAME LISTED SEVERAL TIMES)
  LAST thermo.inp UPDATE:    9/09/04

  g 3/98  *Ar              g 6/97  *H               g 4/02  HO2            
  tpis78  *H2              g 8/89  H2O              g 6/99  H2O2           
  g 5/97  *O               g 4/02  *OH              tpis89  *O2            
  g 8/01  O3               g11/99  H2O(cr)          g 8/01  H2O(L)         
  g 8/01  H2O(L)         

   *** INPUT FOR SHOCK PROBLEMS ***

 INCDEQ = T   REFLEQ = F   INCDFZ = T    REFLFZ = F

 U1 =    1.000000E+03 1.100000E+03 1.200000E+03 1.250000E+03 1.300000E+03
         1.350000E+03 1.400000E+03

 MACH1 = 0.000000E+00 0.000000E+00 0.000000E+00 0.000000E+00 0.000000E+00
         0.000000E+00 0.000000E+00

 O/F =   0.000000

                       EFFECTIVE FUEL     EFFECTIVE OXIDANT        MIXTURE
 ENTHALPY                  h(2)/R              h(1)/R               h0/R
 (KG-MOL)(K)/KG        0.12774942E+00      0.00000000E+00      0.12774942E+00

 KG-FORM.WT./KG             bi(2)               bi(1)               b0i
  *H                   0.26557650E-02      0.00000000E+00      0.26557650E-02
  *O                   0.26557650E-02      0.00000000E+00      0.26557650E-02
  *Ar                  0.23901885E-01      0.00000000E+00      0.23901885E-01




                         SHOCK WAVE PARAMETERS ASSUMING

                 EQUILIBRIUM COMPOSITION FOR INCIDENT SHOCKED CONDITIONS


 CASE = 7              

             REACTANT                       MOLES         ENERGY      TEMP
                                                         KJ/KG-MOL      K
 NAME        H2                           0.0500000        53.359    300.000
 NAME        O2                           0.0500000        54.358    300.000
 NAME        Ar                           0.9000000        38.455    300.000

 O/F=    0.00000  %FUEL=  0.000000  R,EQ.RATIO= 0.500000  PHI,EQ.RATIO= 0.000000

 INITIAL GAS (1)
 MACH NUMBER1      3.0480   3.3528   3.6576   3.8100   3.9624   4.1148   4.2672
 U1, M/SEC        1000.00  1100.00  1200.00  1250.00  1300.00  1350.00  1400.00
 P, BAR           0.01333  0.02666  0.02666  0.02666  0.02666  0.02666  0.02666
 T, K              300.00   300.00   300.00   300.00   300.00   300.00   300.00
 RHO, KG/CU M    2.0126-2 4.0252-2 4.0252-2 4.0252-2 4.0252-2 4.0252-2 4.0252-2
 H, KJ/KG          1.0622   1.0622   1.0622   1.0622   1.0622   1.0622   1.0622
